<?xml version="1.0" encoding="UTF-8"?>
<net version="1.9" xmlns:xsi="http://www.w3.org/2001/XMLSchema-instance" xsi:noNamespaceSchemaLocation="http://sumo.dlr.de/xsd/net_file.xsd">
    
    <!-- Define locations -->
    <location netOffset="0.00,0.00" convBoundary="0.00,0.00,500.00,300.00" origBoundary="0.00,0.00,500.00,300.00" projParameter="!"/>
    
    <!-- Junction 1: Left intersection -->
    <junction id="j1" type="traffic_light" x="100.00" y="150.00" incLanes="e1_0" intLanes=":j1_0_0" shape="95.00,145.00 105.00,145.00 105.00,155.00 95.00,155.00">
        <request index="0" response="000" foes="000" cont="0"/>
        <request index="1" response="000" foes="000" cont="0"/>
    </junction>
    
    <!-- Junction 2: Right intersection -->
    <junction id="j2" type="traffic_light" x="400.00" y="150.00" incLanes="e2_0 e3_0" intLanes=":j2_0_0 :j2_1_0" shape="395.00,145.00 405.00,145.00 405.00,155.00 395.00,155.00">
        <request index="0" response="000" foes="000" cont="0"/>
        <request index="1" response="000" foes="000" cont="0"/>
    </junction>
    
    <!-- Edge 1: Horizontal road, left part -->
    <edge id="e1" from="j1" to="j2" priority="-1">
        <lane id="e1_0" index="0" speed="13.89" length="300.00" shape="100.00,150.00 400.00,150.00"/>
    </edge>
    
    <!-- Edge 2: Horizontal road, right part (after j2) -->
    <edge id="e2" from="j2" to="-1" priority="-1">
        <lane id="e2_0" index="0" speed="13.89" length="100.00" shape="400.00,150.00 500.00,150.00"/>
    </edge>
    
    <!-- Edge 3: Vertical road at j2 -->
    <edge id="e3" from="-1" to="j2" priority="-1">
        <lane id="e3_0" index="0" speed="13.89" length="100.00" shape="400.00,50.00 400.00,150.00"/>
    </edge>
    
    <!-- Edge 4: Vertical road leaving j2 -->
    <edge id="e4" from="j2" to="-2" priority="-1">
        <lane id="e4_0" index="0" speed="13.89" length="100.00" shape="400.00,150.00 400.00,250.00"/>
    </edge>
    
    <!-- Connection from e1 to e2 (straight through j2) -->
    <connection from="e1" to="e2" fromLane="0" toLane="0" via=":j2_0_0"/>
    
    <!-- Connection from e3 to e4 (vertical through j2) -->
    <connection from="e3" to="e4" fromLane="0" toLane="0" via=":j2_1_0"/>
    
    <!-- Traffic light programs -->
    <tlLogic id="j1" type="static" programID="0" offset="0">
        <phase duration="31" state="GGrr"/>
        <phase duration="6" state="yyrr"/>
        <phase duration="31" state="rrGG"/>
        <phase duration="6" state="rryy"/>
    </tlLogic>
    
    <tlLogic id="j2" type="static" programID="0" offset="0">
        <phase duration="31" state="GGrr"/>
        <phase duration="6" state="yyrr"/>
        <phase duration="31" state="rrGG"/>
        <phase duration="6" state="rryy"/>
    </tlLogic>
</net>