<?xml version="1.0" encoding="UTF-8"?>
<configuration xmlns:xsi="http://www.w3.org/2001/XMLSchema-instance" xsi:noNamespaceSchemaLocation="http://sumo.dlr.de/xsd/sumoConfiguration.xsd">
    
    <input>
        <net-file value="1x2.net.xml"/>
        <route-files value="1x2.rou.xml"/>
    </input>
    
    <time>
        <begin value="0"/>
        <end value="3600"/>
        <step-length value="1"/>
    </time>
    
    <report>
        <verbose value="true"/>
        <no-step-log value="true"/>
        <duration-log.statistics value="true"/>
    </report>
    
    <gui_only>
        <gui-settings-file value="gui-settings.xml"/>
        <delay value="50"/>
    </gui_only>
    
</configuration>