<?xml version="1.0" encoding="UTF-8"?>

<!-- generated on 2025-12-27 11:09:17 by Eclipse SUMO sumo Version 1.24.0
-->

<sumoConfiguration xmlns:xsi="http://www.w3.org/2001/XMLSchema-instance" xsi:noNamespaceSchemaLocation="http://sumo.dlr.de/xsd/sumoConfiguration.xsd">

    <input>
        <net-file value="sumo_configs/1x2.net.xml"/>
        <route-files value="sumo_configs/1x2.rou.xml"/>
    </input>

    <time>
        <begin value="0"/>
        <end value="3600"/>
        <step-length value="1"/>
    </time>

    <report>
        <no-step-log value="true"/>
    </report>

</sumoConfiguration>
